Adénosylhomocystéinase
AgglutinineAggradation
Aminométhyltransférase
Aphyllophoromycetideae
Arbeitserziehungslager
Azobisisobutyronitrile
Bidepartementalisation
Bidépartementalisation
Carboxyméthylcellulose
Chaetosphaeridiophytes
Chlordesméthyldiazépam
Chloropentafluoréthane
Chlorotrifluorométhane
Cyclopentacycloheptène
Dehydroepiandrosterone
Dibromodifluorométhane
Didésoxyribonucléotide
Dihydrofolatereductase
Dihydroxyphénylalanine
Diméthyldichlorosilane
Diméthyldiéthoxysilane
Diphosphatidylglycérol
DragonheadsDragonheart
Dubnobasswithmyheadman
Duodénopancréatectomie
Dyspondéromorphophobie
DéHydroEpiAndrostérone
DéHydroÉpiAndrostérone
Déhydroépiandrostérone
Electronystagmographie
Etterretningstjenesten
Grigrigredinmenufretin
Heteracanthocephalidae
Heteracanthocephalinae
Hexabromocyclododécane
Hexaméthylènetétramine
HispaniolynaHispanique
HyperpyrexieHyperpyron
Hystérosalpingographie
Immunopotentialisateur
IndalsalvenIndalsälven
Isoelectrofocalisation
Isoélectrofocalisation
Karamelodiktstipendiet
KunstenFESTIVALdesArts
KunstenFestivaldesArts
Kunstenfestivaldesarts
LaskowszczyznaLaskwerd
LeftRightLeftRightLeft
LeftRigthLeftRigthLeft
Linienzugbeeinflussung
Lysophosphatidylsérine
MagnétoHydroDynamiques
Magnétoencéphalogramme
Micropachycéphalosaure
MicropezidaeMicrophage
Montagsdemonstrationen
Mycropachycéphalosaure
Neocallimastigomycetes
Neurogastroenterologie
Neurogastroentérologie
Nucléotidyltransférase
Ostéochondrodysplasies
Paraméthoxyamphétamine
Parangaricutirimicuaro
Parangaricutirimícuaro
Paraskevidekatriaphobe
Paraskevidékatriaphobe
Paraskévidekatriaphobe
Paulskirchenverfassung
Pentaméthylènetétrazol
Perfluorotributylamine
Phenolsulfonephtaleine
PhysiologosPhysiologue
Phénolsulfonephtaléine
PodiffusionPodilegidae
Polybromodiphenylether
Polybromodiphényléther
Polytétrafluoréthylène
PriceWaterhouseCoopers
PricewaterhouseCoopers
Pricewaterhousecoopers
Pseudotyrannochthonius
Psychoneuroimmunologie
RatschendorfRatshausen
Rhombidodecadodecaedre
Rhombidodécadodécaèdre
SavannakhetSavannakhét
Schwerbelastungskörper
SpezialEinsatzKommando
Spezialeinsatzkommando
Strongylophthalmyiidae
Thefakesoundofprogress
Triazolobenzodiazépine
Trichlorofluoromethane
Trichlorofluorométhane
TrophodiscusTrophonios
Unterseebootsflottille
Écoépidémiologiquement
Électroencéphalogramme
Électroneuromyographie
Électronystagmographie